LAMMPS (22 Aug 2018)
# Fin dminimud floating point parameter in input script or data file (../fix_nh.cpp:132)energy for Beryl

#----- Initialize Simulation -----
clear
units 		metal
boundary 	p p p
atom_style 	full
bond_style	none
variable	etol equal 1e-25
variable 	ftol equal 1e-25
variable 	maxiter equal 5000
variable 	maxeval equal 10000
variable	probeTemp equal PROBETEMP

#----- Create Atoms -----
read_data 	beryl_water_19.mod
  triclinic box = (0 0 0) to (9.208 7.97436 9.188) with tilt (-4.604 0 0)
  reading atoms ...
  61 atoms
  scanning bonds ...
  scanning angles ...
  reading bonds ...
  2 bonds
  reading angles ...
  1 angles
replicate 	1 1 1
  triclinic box = (0 0 0) to (9.208 7.97436 9.188) with tilt (-4.604 0 0)
  61 atoms
  2 bonds
  1 angles
  Time spent = 0.000417948 secs

#----- Define Interatomic Potential -----
include 	potential_main.mod
kspace_style 	pppm 1.0e-4

# Neighbor Style
neighbor	0.3 bin
neigh_modify	delay 0 every 1 check yes

# Minimization style
min_style	cg

# Setup Output
thermo		10
thermo_style	custom	step temp vol cella cellb cellc cellgamma pxx pyy pzz pxy pxz pyz lx ly lz press pe #c_eatoms
thermo_modify	norm no
variable 	myVol equal vol
variable	myCella equal cella
variable	myCellb equal cellb
variable	myCellc equal cellc
variable	myCellgamma equal cellgamma
include 	potential_beryl.mod
# Potential Paramters
pair_style 	hybrid/overlay morse 5.5 buck 5.5 lj/cut/coul/long 5.5 15.0
pair_coeff    1    1 morse     		  0 	       0           0  # Be Be
pair_coeff    1    1 buck                 0            1           -201.0
pair_coeff    1    1 lj/cut/coul/long	  10120.	0.413
pair_coeff    1    2 morse     		  0 	       0           0  # Be Al
pair_coeff    1    2 buck                 0            1           0
pair_coeff    1    2 lj/cut/coul/long	  0	       0
pair_coeff    1    3 morse     		  0 	       0           0  # Al Si
pair_coeff    1    3 buck                 0            1           0
pair_coeff    1    3 lj/cut/coul/long	  0	       0
pair_coeff    1    4 morse 		  0.239919     2.527420    1.815405	#Be O
pair_coeff    1    4 buck                 0.000000     1.000000   -46.00000
pair_coeff    1    4 lj/cut/coul/long     529.000      0.528
pair_coeff    2    2 morse     		  0 	       0           0  # Al Al
pair_coeff    2    2 buck                 0            1           -492.
pair_coeff    2    2 lj/cut/coul/long	  60423		0.356
pair_coeff    2    3 morse     		  0 	       0           0  # Al si
pair_coeff    2    3 buck                 0            1           0
pair_coeff    2    3 lj/cut/coul/long	  0	       0
pair_coeff    2    4 morse 		  0.361581     1.900442    2.164818	#Al O
pair_coeff    2    4 buck                 0.000000     1.000000   -71.5
pair_coeff    2    4 lj/cut/coul/long     1420.0	0.482
pair_coeff    3    3 morse     		  0 	       0           0  # Si Si
pair_coeff    3    3 buck                 0            1           -282.
pair_coeff    3    3 lj/cut/coul/long	  19730		0.391
pair_coeff    3    4 morse 		  0.340554     2.006700    2.100000	#Si O
pair_coeff    3    4 buck                 0.000000     1.000000   -60.5
pair_coeff    3    4 lj/cut/coul/long     916.		0.504
pair_coeff    4    4 morse     		  0.042395     1.379316    3.618701  # O O
pair_coeff    4    4 buck                 0.000000     1.000000   -16.7
pair_coeff    4    4 lj/cut/coul/long	  3.16		1.05
include		potential_water.mod
# Potential Paramters

pair_coeff    1    6 morse     		  0. 	       0.           0.  		# Ow Be
pair_coeff    1    6 buck                 0            1           -354.5
pair_coeff    1    6 lj/cut/coul/long	  39.637	1.1435
pair_coeff    2    6 morse     		  0 	       0           0  		# Ow Al
pair_coeff    2    6 buck                 0            1           -554.6
pair_coeff    2    6 lj/cut/coul/long	  96.854	1.0616
pair_coeff    3    6 morse     		  0 	       0           0  		# Ow Si
pair_coeff    3    6 buck                 0            1           -419.9
pair_coeff    3    6 lj/cut/coul/long	  55.345	1.1126
pair_coeff    4    6 morse     		  0 	       0           0  		# Ow O
pair_coeff    4    6 buck                 0            1           -102.9
pair_coeff    4    6 lj/cut/coul/long	  0.70042	1.8233
pair_coeff    5    6 morse     		  0 	       0           0  # Hw Hw
pair_coeff    5    6 buck                 0            1           0
pair_coeff    5    6 lj/cut/coul/long	  0.000	      0.0
pair_coeff    6    6 morse     		  0 	       0           0  		# Ow Ow
pair_coeff    6    6 buck                 0            1           -625.4
pair_coeff    6    6 lj/cut/coul/long	  0.15525	3.166
pair_coeff    1    5 morse     		  0 	       0           0  # Hw Hw
pair_coeff    1    5 buck                 0            1           0
pair_coeff    1    5 lj/cut/coul/long	  0.000	      0.0
pair_coeff    2    5 morse     		  0 	       0           0  # Hw Hw
pair_coeff    2    5 buck                 0            1           0
pair_coeff    2    5 lj/cut/coul/long	  0.000	      0.0
pair_coeff    3    5 morse     		  0 	       0           0  # Hw Hw
pair_coeff    3    5 buck                 0            1           0
pair_coeff    3    5 lj/cut/coul/long	  0.000	      0.0
pair_coeff    4    5 morse     		  0 	       0           0  # Hw Hw
pair_coeff    4    5 buck                 0            1           0
pair_coeff    4    5 lj/cut/coul/long	  0.000	      0.0
pair_coeff    5    5 morse     		  0 	       0           0  # Hw Hw
pair_coeff    5    5 buck                 0            1           0
pair_coeff    5    5 lj/cut/coul/long	  0.000	      0.0

bond_style	harmonic
angle_style	harmonic
dihedral_style	none
improper_style	none

bond_coeff	1 1000.00 1.000
angle_coeff	1 100.0 109.47

compute pre_pe all pe
fix BRX all box/relax iso 1.013
minimize        1e-6 1e-6 5000 10000 # Performs actual minimization
PPPM initialization ...
  G vector (1/distance) = 0.213576
  grid = 6 9 8
  stencil order = 5
  estimated absolute RMS force accuracy = 0.000337483
  estimated relative force accuracy = 2.34369e-05
  3d grid and FFT values/proc = 2002 432
  update every 1 steps, delay 0 steps, check yes
Step Temp Volume Cella Cellb Cellc CellGamma Pxx Pyy Pzz Pxy Pxz Pyz Lx Ly Lz Press PotEng
0            0    674.65578        9.208    9.2080001        9.188          120   -7262438.6   -203875.83   -1907059.7    4752.9544  -0.12759367    67.048945        9.208     7.974362        9.188     -3124458   -452.32664
Averages over the last 118 of 235 rows, steps 1170 to 2340:
Temp Volume Cella Cellb Cellc CellGamma Pxx Pyy Pzz Pxy Pxz Pyz Lx Ly Lz Press PotEng
0 541.591 8.54907 8.54907 8.5305 120 -535792 479367 278988 682.793 -0.08793 -70.5493 8.54907 7.40371 8.5305 74187.6 -1150.56
Loop time of 5.7471 on 1 procs for 2340 steps with 61 atoms

Minimization stats:
  Stopping criterion = energy tolerance
  Energy initial, next-to-last, final =
  Force two-norm initial, final = 4784.06 4.30247
  Force max component initial, final = 3947.01 0.743789
  Final line search alpha, max atom move = 5.64505e-05 4.19873e-05
  Iterations, force evaluations = 2340 2341
