LAMMPS (16 Mar 2018)
# Find minimum energy for Beryl

#----- Initialize Simulation -----
clear
units 		metal
boundary 	p p p
atom_style 	full
variable	etol equal 1e-25
variable 	ftol equal 1e-25
variable 	maxiter equal 5000
variable 	maxeval equal 10000

#----- Create Atoms -----
read_data 	mod/beryl_water_025.xyz
  triclinic box = (0 0 0) to (9.208 7.97436 18.376) with tilt (-4.604 0 0)
  reading atoms ...
  119 atoms
  scanning bonds ...
  scanning angles ...
  reading bonds ...
  2 bonds
  reading angles ...
  1 angles
replicate 	1  1  1
  triclinic box = (0 0 0) to (9.208 7.97436 18.376) with tilt (-4.604 0 0)
  119 atoms
  2 bonds
  1 angles
  Time spent = 0.000428915 secs

#----- Define Interatomic Potential -----
include		mod/potential_main.mod
kspace_style    pppm 1.0e-4

# Neighbor Style
neighbor        0.3 bin
neigh_modify    delay 0 every 1 check yes

# Minimization style
min_style       cg

# Setup Output
thermo          10
thermo_style    custom  step temp vol cella cellb cellc cellgamma pxx pyy pzz pxy pxz pyz lx ly lz press pe #c_eatoms
thermo_modify   norm no
variable        myVol equal vol
variable        myCella equal cella
variable        myCellb equal cellb
variable        myCellc equal cellc
variable        myCellgamma equal cellgamma
include 	mod/potential_beryl.mod
# Potential Paramters
pair_style      hybrid/overlay morse 5.5 buck 5.5 lj/cut/coul/long 5.5 15.0
pair_coeff    1    1 morse                0            0           0  # Be Be
pair_coeff    1    1 buck                 0            1           -201.0
pair_coeff    1    1 lj/cut/coul/long     10120.        0.413
pair_coeff    1    2 morse                0            0           0  # Be Al
pair_coeff    1    2 buck                 0            1           0
pair_coeff    1    2 lj/cut/coul/long     0            0
pair_coeff    1    3 morse                0            0           0  # Al Si
pair_coeff    1    3 buck                 0            1           0
pair_coeff    1    3 lj/cut/coul/long     0            0
pair_coeff    1    4 morse                0.239919     2.527420    1.815405     #Be O
pair_coeff    1    4 buck                 0.000000     1.000000   -46.00000
pair_coeff    1    4 lj/cut/coul/long     529.000      0.528
pair_coeff    2    2 morse                0            0           0  # Al Al
pair_coeff    2    2 buck                 0            1           -492.
pair_coeff    2    2 lj/cut/coul/long     60423         0.356
pair_coeff    2    3 morse                0            0           0  # Al si
pair_coeff    2    3 buck                 0            1           0
pair_coeff    2    3 lj/cut/coul/long     0            0
pair_coeff    2    4 morse                0.361581     1.900442    2.164818     #Al O
pair_coeff    2    4 buck                 0.000000     1.000000   -71.5
pair_coeff    2    4 lj/cut/coul/long     1420.0        0.482
pair_coeff    3    3 morse                0            0           0  # Si Si
pair_coeff    3    3 buck                 0            1           -282.
pair_coeff    3    3 lj/cut/coul/long     19730         0.391
pair_coeff    3    4 morse                0.340554     2.006700    2.100000     #Si O
pair_coeff    3    4 buck                 0.000000     1.000000   -60.5
pair_coeff    3    4 lj/cut/coul/long     916.          0.504
pair_coeff    4    4 morse                0.042395     1.379316    3.618701  # O O
pair_coeff    4    4 buck                 0.000000     1.000000   -16.7
pair_coeff    4    4 lj/cut/coul/long     3.16          1.05
include 	mod/potential_water.mod
# Potential Paramters

pair_coeff    1    6 morse                0.           0.           0.                  # Ow Be
pair_coeff    1    6 buck                 0            1           -354.5
pair_coeff    1    6 lj/cut/coul/long     39.637        1.1435
pair_coeff    2    6 morse                0            0           0            # Ow Al
pair_coeff    2    6 buck                 0            1           -554.6
pair_coeff    2    6 lj/cut/coul/long     96.854        1.0616
pair_coeff    3    6 morse                0            0           0            # Ow Si
pair_coeff    3    6 buck                 0            1           -419.9
pair_coeff    3    6 lj/cut/coul/long     55.345        1.1126
pair_coeff    4    6 morse                0            0           0            # Ow O
pair_coeff    4    6 buck                 0            1           -102.9
pair_coeff    4    6 lj/cut/coul/long     0.70042       1.8233
pair_coeff    5    6 morse                0            0           0  # Hw Hw
pair_coeff    5    6 buck                 0            1           0
pair_coeff    5    6 lj/cut/coul/long     0.000       0.0
pair_coeff    6    6 morse                0            0           0            # Ow Ow
pair_coeff    6    6 buck                 0            1           -625.4
pair_coeff    6    6 lj/cut/coul/long     0.15525       3.166
pair_coeff    1    5 morse                0            0           0  # Hw Hw
pair_coeff    1    5 buck                 0            1           0
pair_coeff    1    5 lj/cut/coul/long     0.000       0.0
pair_coeff    2    5 morse                0            0           0  # Hw Hw
pair_coeff    2    5 buck                 0            1           0
pair_coeff    2    5 lj/cut/coul/long     0.000       0.0
pair_coeff    3    5 morse                0            0           0  # Hw Hw
pair_coeff    3    5 buck                 0            1           0
pair_coeff    3    5 lj/cut/coul/long     0.000       0.0
pair_coeff    4    5 morse                0            0           0  # Hw Hw
pair_coeff    4    5 buck                 0            1           0
pair_coeff    4    5 lj/cut/coul/long     0.000       0.0
pair_coeff    5    5 morse                0            0           0  # Hw Hw
pair_coeff    5    5 buck                 0            1           0
pair_coeff    5    5 lj/cut/coul/long     0.000       0.0

bond_style      harmonic
angle_style     harmonic
dihedral_style  none
improper_style  none

bond_coeff      1 1000.00 1.000
angle_coeff     1 100.0 109.47

#------ Define Settings -----

# ----- Run Minimization -----

fix BRX all box/relax iso 1.013

dump MIN all custom 1 min.lammpstrj id type element x y z ix iy iz

minimize	1e-6 1e-6 5000 10000 # Performs actual minimization
PPPM initialization ...
  G vector (1/distance) = 0.208163
  grid = 6 10 10
  stencil order = 5
  estimated absolute RMS force accuracy = 0.000576947
  estimated relative force accuracy = 4.00668e-05
  3d grid and FFT values/proc = 2475 600
  update every 1 steps, delay 0 steps, check yes
Step Temp Volume Cella Cellb Cellc CellGamma Pxx Pyy Pzz Pxy Pxz Pyz Lx Ly Lz Press PotEng
0            0    1349.3116        9.208    9.2080001       18.376          120    -203482.7   -203128.75   -275029.73     99.96019    598.74128    314.58432        9.208     7.974362       18.376   -227213.72   -2412.4897
Loop time of 3.05813 on 1 procs for 693 steps with 119 atoms

Minimization stats:
  Stopping criterion = energy tolerance
  Energy initial, next-to-last, final =
  Force two-norm initial, final = 574.254 5.99819
  Force max component initial, final = 574.063 0.774933
  Final line search alpha, max atom move = 3.96719e-05 3.07431e-05
  Iterations, force evaluations = 693 693

undump MIN

reset_timestep	0
timestep 0.0001

velocity        all create 300.0 87287 loop geom
fix		1 all npt temp 300.0 30.0 .1 iso 1.013 1.013 1.0

dump TRJ all custom 1 dump.lammpstrj id type element x y z ix iy iz
dump_modify TRJ sort 1 element Be Al Si O H O

run 		10000
PPPM initialization ...
  G vector (1/distance) = 0.212301
  grid = 8 10 10
  stencil order = 5
  estimated absolute RMS force accuracy = 0.00041044
  estimated relative force accuracy = 2.85035e-05
  3d grid and FFT values/proc = 2925 800
Step Temp Volume Cella Cellb Cellc CellGamma Pxx Pyy Pzz Pxy Pxz Pyz Lx Ly Lz Press PotEng
0          300    1206.1378    8.8700664    8.8700665    17.701601          120    10181.384    8731.2771   -6534.3073    338.69621     1466.492    539.15551    8.8700664    7.6817029    17.701601    4126.1179   -2429.4472
Averages over the last 501 of 1001 rows, steps 5000 to 10000:
Temp Volume Cella Cellb Cellc CellGamma Pxx Pyy Pzz Pxy Pxz Pyz Lx Ly Lz Press PotEng
141.339 1287.82 9.06591 9.06591 18.0924 120 -4865.84 42648.6 -35754.2 -20307.5 5042.16 -10039.8 9.06591 7.8513 18.0924 676.196 -2439.89
Loop time of 33.3757 on 1 procs for 10000 steps with 119 atoms

print		" "

print		"All done!"
All done!
