LAMMPS (16 Mar 2018)
# Fin dminimud floating point parameter in input script or data file (../fix_nh.cpp:132)energy for Beryl

#----- Initialize Simulation -----
clear
units 		metal
boundary 	p p p
atom_style 	full
bond_style	none
variable	etol equal 1e-25
variable 	ftol equal 1e-25
variable 	maxiter equal 5000
variable 	maxeval equal 10000
variable	probeTemp equal 2000

#----- Create Atoms -----
read_data 	beryl_water_100.mod
  triclinic box = (0 0 0) to (9.208 7.97436 18.376) with tilt (-4.604 0 0)
  reading atoms ...
  128 atoms
  scanning bonds ...
  scanning angles ...
  reading bonds ...
  8 bonds
  reading angles ...
  4 angles
replicate 	8 8 2
  triclinic box = (0 0 0) to (73.664 63.7949 36.752) with tilt (-36.832 0 0)
  16384 atoms
  1024 bonds
  512 angles
  Time spent = 0.00462818 secs

#----- Define Interatomic Potential -----
include 	potential_main.mod
kspace_style 	pppm 1.0e-4

# Neighbor Style
neighbor	0.3 bin
neigh_modify	delay 0 every 1 check yes

# Minimization style
min_style	cg

# Setup Output
thermo		10
thermo_style	custom	step temp vol cella cellb cellc cellgamma pxx pyy pzz pxy pxz pyz lx ly lz press pe #c_eatoms
thermo_modify	norm no
variable 	myVol equal vol
variable	myCella equal cella
variable	myCellb equal cellb
variable	myCellc equal cellc
variable	myCellgamma equal cellgamma
include 	potential_beryl.mod
# Potential Paramters
pair_style 	hybrid/overlay morse 5.5 buck 5.5 lj/cut/coul/long 5.5 15.0
pair_coeff    1    1 morse     		  0 	       0           0  # Be Be
pair_coeff    1    1 buck                 0            1           -201.0
pair_coeff    1    1 lj/cut/coul/long	  10120.	0.413
pair_coeff    1    2 morse     		  0 	       0           0  # Be Al
pair_coeff    1    2 buck                 0            1           0
pair_coeff    1    2 lj/cut/coul/long	  0	       0
pair_coeff    1    3 morse     		  0 	       0           0  # Al Si
pair_coeff    1    3 buck                 0            1           0
pair_coeff    1    3 lj/cut/coul/long	  0	       0
pair_coeff    1    4 morse 		  0.239919     2.527420    1.815405	#Be O
pair_coeff    1    4 buck                 0.000000     1.000000   -46.00000
pair_coeff    1    4 lj/cut/coul/long     529.000      0.528
pair_coeff    2    2 morse     		  0 	       0           0  # Al Al
pair_coeff    2    2 buck                 0            1           -492.
pair_coeff    2    2 lj/cut/coul/long	  60423		0.356
pair_coeff    2    3 morse     		  0 	       0           0  # Al si
pair_coeff    2    3 buck                 0            1           0
pair_coeff    2    3 lj/cut/coul/long	  0	       0
pair_coeff    2    4 morse 		  0.361581     1.900442    2.164818	#Al O
pair_coeff    2    4 buck                 0.000000     1.000000   -71.5
pair_coeff    2    4 lj/cut/coul/long     1420.0	0.482
pair_coeff    3    3 morse     		  0 	       0           0  # Si Si
pair_coeff    3    3 buck                 0            1           -282.
pair_coeff    3    3 lj/cut/coul/long	  19730		0.391
pair_coeff    3    4 morse 		  0.340554     2.006700    2.100000	#Si O
pair_coeff    3    4 buck                 0.000000     1.000000   -60.5
pair_coeff    3    4 lj/cut/coul/long     916.		0.504
pair_coeff    4    4 morse     		  0.042395     1.379316    3.618701  # O O
pair_coeff    4    4 buck                 0.000000     1.000000   -16.7
pair_coeff    4    4 lj/cut/coul/long	  3.16		1.05
include 	potential_water.mod
# Potential Paramters

pair_coeff    1    6 morse     		  0. 	       0.           0.  		# Ow Be
pair_coeff    1    6 buck                 0            1           -354.5
pair_coeff    1    6 lj/cut/coul/long	  39.637	1.1435
pair_coeff    2    6 morse     		  0 	       0           0  		# Ow Al
pair_coeff    2    6 buck                 0            1           -554.6
pair_coeff    2    6 lj/cut/coul/long	  96.854	1.0616
pair_coeff    3    6 morse     		  0 	       0           0  		# Ow Si
pair_coeff    3    6 buck                 0            1           -419.9
pair_coeff    3    6 lj/cut/coul/long	  55.345	1.1126
pair_coeff    4    6 morse     		  0 	       0           0  		# Ow O
pair_coeff    4    6 buck                 0            1           -102.9
pair_coeff    4    6 lj/cut/coul/long	  0.70042	1.8233
pair_coeff    5    6 morse     		  0 	       0           0  # Hw Hw
pair_coeff    5    6 buck                 0            1           0
pair_coeff    5    6 lj/cut/coul/long	  0.000	      0.0
pair_coeff    6    6 morse     		  0 	       0           0  		# Ow Ow
pair_coeff    6    6 buck                 0            1           -625.4
pair_coeff    6    6 lj/cut/coul/long	  0.15525	3.166
pair_coeff    1    5 morse     		  0 	       0           0  # Hw Hw
pair_coeff    1    5 buck                 0            1           0
pair_coeff    1    5 lj/cut/coul/long	  0.000	      0.0
pair_coeff    2    5 morse     		  0 	       0           0  # Hw Hw
pair_coeff    2    5 buck                 0            1           0
pair_coeff    2    5 lj/cut/coul/long	  0.000	      0.0
pair_coeff    3    5 morse     		  0 	       0           0  # Hw Hw
pair_coeff    3    5 buck                 0            1           0
pair_coeff    3    5 lj/cut/coul/long	  0.000	      0.0
pair_coeff    4    5 morse     		  0 	       0           0  # Hw Hw
pair_coeff    4    5 buck                 0            1           0
pair_coeff    4    5 lj/cut/coul/long	  0.000	      0.0
pair_coeff    5    5 morse     		  0 	       0           0  # Hw Hw
pair_coeff    5    5 buck                 0            1           0
pair_coeff    5    5 lj/cut/coul/long	  0.000	      0.0

bond_style	harmonic
angle_style	harmonic
dihedral_style	none
improper_style	none

bond_coeff	1 1000.00 1.000
angle_coeff	1 100.0 109.47

#------ Define Settings -----

# ----- Run Minimization -----
fix 		BRX all box/relax iso 1.013
minimize	1e-25 1e-25 5000 10000 # Performs actual minimization
PPPM initialization ...
  G vector (1/distance) = 0.201666
  grid = 36 50 24
  stencil order = 5
  estimated absolute RMS force accuracy = 0.00101776
  estimated relative force accuracy = 7.06792e-05
  3d grid and FFT values/proc = 65395 43200
  update every 1 steps, delay 0 steps, check yes
Step Temp Volume Cella Cellb Cellc CellGamma Pxx Pyy Pzz Pxy Pxz Pyz Lx Ly Lz Press PotEng
0            0    172711.88       73.664    73.664001       36.752          120   -204221.37   -202842.58    -274841.9    23.767381    562.25713   -195.00554       73.664    63.794896       36.752   -227301.95   -308836.57
Loop time of 136.77 on 1 procs for 177 steps with 16384 atoms

Minimization stats:
  Stopping criterion = linesearch alpha is zero
  Energy initial, next-to-last, final =
  Force two-norm initial, final = 73508.8 8127.34
  Force max compponent initial, final = 73508.6 8004.18
  Final line search alpha, max atom move = 1.86167e-16 1.49012e-12
  Iterations, force evaluations = 177 256

reset_timestep	0
timestep	0.0001
velocity       	all create 2000 87287 loop geom
fix		1 all npt temp 2000 2000 0.1 iso 1.013 1.013 5.0
run		10000 # Warmup
PPPM initialization ...
  G vector (1/distance) = 0.202498
  grid = 36 50 24
  stencil order = 5
  estimated absolute RMS force accuracy = 0.000966408
  estimated relative force accuracy = 6.71133e-05
  3d grid and FFT values/proc = 65395 43200
Step Temp Volume Cella Cellb Cellc CellGamma Pxx Pyy Pzz Pxy Pxz Pyz Lx Ly Lz Press PotEng
0         2000    164108.04    72.419888    72.419888    36.131295          120     56993.42   -10568.079   -40489.425    39706.101    90389.633   -35579.873    72.419888    62.717463    36.131295    1978.6388   -309584.95
Averages over the last 501 of 1001 rows, steps 5000 to 10000:
Temp Volume Cella Cellb Cellc CellGamma Pxx Pyy Pzz Pxy Pxz Pyz Lx Ly Lz Press PotEng
2007.05 166174 72.7224 72.7224 36.2822 120 31998 34405.6 -25191.4 -714.032 1017.04 890.723 72.7224 62.9794 36.2822 13737.4 -307754
Loop time of 4216.61 on 1 procs for 10000 steps with 16384 atoms

reset_timestep	0
fix		2 all ave/time 1 1 500 c_thermo_temp c_thermo_pe c_thermo_press v_myVol v_myCella v_myCellb v_myCellc v_myCellgamma file data/current_run/cp_rawTemp2000.dat
run 		100000
PPPM initialization ...
  G vector (1/distance) = 0.20216
  grid = 36 50 24
  stencil order = 5
  estimated absolute RMS force accuracy = 0.000986985
  estimated relative force accuracy = 6.85423e-05
  3d grid and FFT values/proc = 65395 43200
Step Temp Volume Cella Cellb Cellc CellGamma Pxx Pyy Pzz Pxy Pxz Pyz Lx Ly Lz Press PotEng
0    2004.2149    167561.61    72.924378    72.924378    36.382992          120    44400.203    48815.367   -12751.795    840.42118   -820.64021   -940.92009    72.924378    63.154364    36.382992    26821.258   -307861.94
Loop time of 40697.4 on 1 procs for 100000 steps with 16384 atoms

unfix		2
variable	probeTemp delete

print		" "

print		"All done!"
All done!
