LAMMPS (16 Mar 2018)
# Find minimum energy for Beryl

#----- Initialize Simulation -----
clear
units 		metal
boundary 	p p p
atom_style 	full
variable	etol equal 1e-25
variable 	ftol equal 1e-25
variable 	maxiter equal 5000
variable 	maxeval equal 10000

#----- Create Atoms -----
read_data 	mod/beryl_water_025.xyz
  triclinic box = (0 0 0) to (9.208 7.97436 18.376) with tilt (-4.604 0 0)
  reading atoms ...
  119 atoms
  scanning bonds ...
  scanning angles ...
  reading bonds ...
  2 bonds
  reading angles ...
  1 angles
replicate 	1  1  1
  triclinic box = (0 0 0) to (9.208 7.97436 18.376) with tilt (-4.604 0 0)
  119 atoms
  2 bonds
  1 angles
  Time spent = 0.000381947 secs

#----- Define Interatomic Potential -----
include		mod/potential_main.mod
kspace_style 	pppm/tip4p 1.0e-4
pair_style 	hybrid/overlay morse 5.5 buck 5.5 lj/cut/coul/long 5.5 15 lj/cut/tip4p/long 5 6 1 1 0.1546 15

# Neighbor Style
neighbor	0.3 bin
neigh_modify	delay 0 every 1 check yes

# Minimization style
min_style	cg

# Setup Output
thermo_style	custom	step temp vol cella cellb cellc cellgamma pxx pyy pzz pxy pxz pyz lx ly lz press pe #c_eatoms
thermo_modify	norm no
variable 	myVol equal vol
variable	myCella equal cella
variable	myCellb equal cellb
variable	myCellc equal cellc
variable	myCellgamma equal cellgamma
include 	mod/potential_beryl.mod
# Potential Paramters
pair_coeff    1    1 morse     		  0 	       0           0  # Be Be
pair_coeff    1    1 buck                 0            1           -201.0
pair_coeff    1    1 lj/cut/coul/long	  10120.	0.413
pair_coeff    1    2 morse     		  0 	       0           0  # Be Al
pair_coeff    1    2 buck                 0            1           0
pair_coeff    1    2 lj/cut/coul/long	  0	       0
pair_coeff    1    3 morse     		  0 	       0           0  # Al Si
pair_coeff    1    3 buck                 0            1           0
pair_coeff    1    3 lj/cut/coul/long	  0	       0
pair_coeff    1    4 morse 		  0.239919     2.527420    1.815405	#Be O
pair_coeff    1    4 buck                 0.000000     1.000000   -46.00000
pair_coeff    1    4 lj/cut/coul/long     529.000      0.528
pair_coeff    2    2 morse     		  0 	       0           0  # Al Al
pair_coeff    2    2 buck                 0            1           -492.
pair_coeff    2    2 lj/cut/coul/long	  60423		0.356
pair_coeff    2    3 morse     		  0 	       0           0  # Al si
pair_coeff    2    3 buck                 0            1           0
pair_coeff    2    3 lj/cut/coul/long	  0	       0
pair_coeff    2    4 morse 		  0.361581     1.900442    2.164818	#Al O
pair_coeff    2    4 buck                 0.000000     1.000000   -71.5
pair_coeff    2    4 lj/cut/coul/long     1420.0	0.482
pair_coeff    3    3 morse     		  0 	       0           0  # Si Si
pair_coeff    3    3 buck                 0            1           -282.
pair_coeff    3    3 lj/cut/coul/long	  19730		0.391
pair_coeff    3    4 morse 		  0.340554     2.006700    2.100000	#Si O
pair_coeff    3    4 buck                 0.000000     1.000000   -60.5
pair_coeff    3    4 lj/cut/coul/long     916.		0.504
pair_coeff    4    4 morse     		  0.042395     1.379316    3.618701  # O O
pair_coeff    4    4 buck                 0.000000     1.000000   -16.7
pair_coeff    4    4 lj/cut/coul/long	  3.16		1.05
include 	mod/potential_water.mod
# Potential Paramters

pair_coeff    1    5 morse     		  0. 	       0.           0.  	# Ow Be
pair_coeff    1    5 buck                 0            1           -354.5
pair_coeff    1    5 lj/cut/tip4p/long	  39.637	1.1435
pair_coeff    2    5 morse     		  0 	       0           0  		# Ow Al
pair_coeff    2    5 buck                 0            1           -554.6
pair_coeff    2    5 lj/cut/tip4p/long	  96.854	1.0616
pair_coeff    3    5 morse     		  0 	       0           0  		# Ow Si
pair_coeff    3    5 buck                 0            1           -419.9
pair_coeff    3    5 lj/cut/tip4p/long	  55.345	1.1126
pair_coeff    4    5 morse     		  0 	       0           0  		# Ow O
pair_coeff    4    5 buck                 0            1           -102.9
pair_coeff    4    5 lj/cut/tip4p/long	  0.70042	1.8233
pair_coeff    5    6 morse     		  0 	       0           0  		# Ow Hw
pair_coeff    5    6 buck                 0            1           0
pair_coeff    5    6 lj/cut/tip4p/long	  0.000	      0.0

pair_coeff    5    5 morse     		  0 	       0           0  		# Ow Ow
pair_coeff    5    5 buck                 0            1           -625.4
pair_coeff    5    5 lj/cut/tip4p/long	  0.008038276	3.1589
pair_coeff    1    6 morse     		  0 	       0           0  		# Hw Be
pair_coeff    1    6 buck                 0            1           0
pair_coeff    1    6 lj/cut/tip4p/long	  0.000	      0.0
pair_coeff    2    6 morse     		  0 	       0           0  		# Hw Al
pair_coeff    2    6 buck                 0            1           0
pair_coeff    2    6 lj/cut/tip4p/long	  0.000	      0.0
pair_coeff    3    6 morse     		  0 	       0           0  		# Hw Si
pair_coeff    3    6 buck                 0            1           0
pair_coeff    3    6 lj/cut/tip4p/long	  0.000	      0.0
pair_coeff    4    6 morse     		  0 	       0           0  		# Hw O
pair_coeff    4    6 buck                 0            1           0
pair_coeff    4    6 lj/cut/tip4p/long	  0.000	      0.0
pair_coeff    6    6 morse     		  0 	       0           0  		# Hw Hw
pair_coeff    6    6 buck                 0            1           0
pair_coeff    6    6 lj/cut/tip4p/long	  0.000	      0.0

bond_style	harmonic
angle_style	harmonic
dihedral_style	none
improper_style	none

bond_coeff	1 35.756   	0.95720
angle_coeff	1 3.969		104.520
group		water type 5 6
3 atoms in group water

#------ Define Settings -----

# ----- Run Minimization -----

fix BRX all box/relax iso 1.013

dump MIN all custom 1 min.lammpstrj id type element x y z ix iy iz

minimize	1e-6 1e-6 5000 10000 # Performs actual minimization
PPPM initialization ...
  extracting TIP4P info from pair style
  G vector (1/distance) = 0.208163
  grid = 6 10 10
  stencil order = 5
  estimated absolute RMS force accuracy = 0.000576947
  estimated relative force accuracy = 4.00668e-05
  3d grid and FFT values/proc = 2475 600
  update every 1 steps, delay 0 steps, check yes
Step Temp Volume Cella Cellb Cellc CellGamma Pxx Pyy Pzz Pxy Pxz Pyz Lx Ly Lz Press PotEng
0            0    1349.3116        9.208    9.2080001       18.376          120   -208666.87   -206120.51   -279630.46   -678.00215   -2301.8057    492.81519        9.208     7.974362       18.376   -231472.62   -2412.9425
Loop time of 1.75049 on 1 procs for 331 steps with 119 atoms

Minimization stats:
  Stopping criterion = energy tolerance
  Energy initial, next-to-last, final =
  Force two-norm initial, final = 585.029 70.6588
  Force max component initial, final = 584.823 68.5217
  Final line search alpha, max atom move = 4.55666e-08 3.1223e-06
  Iterations, force evaluations = 331 337

undump MIN

reset_timestep	0
timestep 0.001

velocity        all create 300.0 87287 loop geom
fix		2 water shake 0.0001 20 100  b 1 a 1
fix		1 all npt temp 300.0 30.0 .1 iso 1.013 1.013 1.0

dump TRJ all custom 1 dump.lammpstrj id type element x y z ix iy iz
dump_modify TRJ sort 1 element Be Al Si O H O

run 		10000
PPPM initialization ...
  extracting TIP4P info from pair style
  G vector (1/distance) = 0.206247
  grid = 6 10 9
  stencil order = 5
  estimated absolute RMS force accuracy = 0.000726029
  estimated relative force accuracy = 5.04199e-05
  3d grid and FFT values/proc = 2310 540
  update every 1 steps, delay 0 steps, check yes
SHAKE stats (type/ave/delta) on step 0
Step Temp Volume Cella Cellb Cellc CellGamma Pxx Pyy Pzz Pxy Pxz Pyz Lx Ly Lz Press PotEng
0     302.5641    1220.2669    8.9045676    8.9045677    17.770453          120    4395.8419    7223.1924   -90422.873   -779.68586   -2513.3307   -239.87873    8.9045676    7.7115819    17.770453   -26267.946   -2424.9602
Loop time of 44.9929 on 1 procs for 10000 steps with 119 atoms

print		" "

print		"All done!"
All done!
