LAMMPS (22 Aug 2018)
# Fin dminimud floating point parameter in input script or data file (../fix_nh.cpp:132)energy for Beryl

#----- Initialize Simulation -----
clear
units 		metal
boundary 	p p p
atom_style 	full
bond_style	none
variable	etol equal 1e-25
variable 	ftol equal 1e-25
variable 	maxiter equal 5000
variable 	maxeval equal 10000
variable	probeTemp equal 10

#----- Create Atoms -----
read_data 	beryl.mod
  triclinic box = (0 0 0) to (9.208 7.97436 18.376) with tilt (-4.604 0 0)
  reading atoms ...
  116 atoms
replicate 	8 8 2
  triclinic box = (0 0 0) to (73.664 63.7949 36.752) with tilt (-36.832 0 0)
  14848 atoms
  Time spent = 0.0102849 secs

#----- Define Interatomic Potential -----
include 	potential_main.mod
kspace_style 	pppm 1.0e-4

# Neighbor Style
neighbor	0.3 bin
neigh_modify	delay 0 every 1 check yes

# Minimization style
min_style	cg

# Setup Output
thermo		100
thermo_style	custom	step temp vol cella cellb cellc cellgamma pxx pyy pzz pxy pxz pyz lx ly lz press pe #c_eatoms
thermo_modify	norm no
variable 	myVol equal vol
variable	myCella equal cella
variable	myCellb equal cellb
variable	myCellc equal cellc
variable	myCellgamma equal cellgamma
include 	potential_beryl.mod
# Potential Paramters
pair_style 	hybrid/overlay morse 5.5 buck 5.5 lj/cut/coul/long 5.5 15.0
pair_coeff    1    1 morse     		  0 	       0           0  # Be Be
pair_coeff    1    1 buck                 0            1           -201.0
pair_coeff    1    1 lj/cut/coul/long	  10120.	0.413
pair_coeff    1    2 morse     		  0 	       0           0  # Be Al
pair_coeff    1    2 buck                 0            1           0
pair_coeff    1    2 lj/cut/coul/long	  0	       0
pair_coeff    1    3 morse     		  0 	       0           0  # Al Si
pair_coeff    1    3 buck                 0            1           0
pair_coeff    1    3 lj/cut/coul/long	  0	       0
pair_coeff    1    4 morse 		  0.239919     2.527420    1.815405	#Be O
pair_coeff    1    4 buck                 0.000000     1.000000   -46.00000
pair_coeff    1    4 lj/cut/coul/long     529.000      0.528
pair_coeff    2    2 morse     		  0 	       0           0  # Al Al
pair_coeff    2    2 buck                 0            1           -492.
pair_coeff    2    2 lj/cut/coul/long	  60423		0.356
pair_coeff    2    3 morse     		  0 	       0           0  # Al si
pair_coeff    2    3 buck                 0            1           0
pair_coeff    2    3 lj/cut/coul/long	  0	       0
pair_coeff    2    4 morse 		  0.361581     1.900442    2.164818	#Al O
pair_coeff    2    4 buck                 0.000000     1.000000   -71.5
pair_coeff    2    4 lj/cut/coul/long     1420.0	0.482
pair_coeff    3    3 morse     		  0 	       0           0  # Si Si
pair_coeff    3    3 buck                 0            1           -282.
pair_coeff    3    3 lj/cut/coul/long	  19730		0.391
pair_coeff    3    4 morse 		  0.340554     2.006700    2.100000	#Si O
pair_coeff    3    4 buck                 0.000000     1.000000   -60.5
pair_coeff    3    4 lj/cut/coul/long     916.		0.504
pair_coeff    4    4 morse     		  0.042395     1.379316    3.618701  # O O
pair_coeff    4    4 buck                 0.000000     1.000000   -16.7
pair_coeff    4    4 lj/cut/coul/long	  3.16		1.05
#------ Define Settings -----

# ----- Run Minimization -----
#minimize	1e-25 1e-25 5000 10000 # Performs actual minimization

#include		calcLatticeParams.mod

reset_timestep	0
timestep	0.0005
velocity       	all create 10 87287 loop geom
#run		10000 # Warmup
#thermo		0
reset_timestep	0
run 		100000
PPPM initialization ...
  G vector (1/distance) = 0.201681
  grid = 36 50 24
  stencil order = 5
  estimated absolute RMS force accuracy = 0.00105653
  estimated relative force accuracy = 7.33721e-05
  3d grid and FFT values/proc = 65395 43200
  update every 1 steps, delay 0 steps, check yes
Step Temp Volume Cella Cellb Cellc CellGamma Pxx Pyy Pzz Pxy Pxz Pyz Lx Ly Lz Press PotEng
0           10    172711.88       73.664    73.664001       36.752          120   -204217.99   -204209.08   -275754.38    1.0250408   0.54269768   0.23015431       73.664    63.794896       36.752   -228060.48   -308813.26
Averages over the last 361 of 721 rows, steps 36000 to 72000:
Temp Volume Cella Cellb Cellc CellGamma Pxx Pyy Pzz Pxy Pxz Pyz Lx Ly Lz Press PotEng
10 172712 73.664 73.664 36.752 120 -204218 -204209 -275754 1.02504 0.542698 0.230154 73.664 63.7949 36.752 -228060 -308813
   72100           10    172711.88       73.664    73.664001       36.752          120   -204217.99   -204209.08   -275754..38    1.0250408   0.54269768   0.23015431       73.664    63.794896       36.752   -228060.48   -308813.26
Loop time of 36499.6 on 1 procs for 100000 steps with 14848 atoms

variable	probeTemp delete

print		" "

print		"All done!"
All done!
